/*--------------------------------*- C++ -*----------------------------------*\
  =========                 |
  \\      /  F ield         | OpenFOAM: The Open Source CFD Toolbox
   \\    /   O peration     | Website:  https://openfoam.org
    \\  /    A nd           | Version:  10
     \\/     M anipulation  |
\*---------------------------------------------------------------------------*/
FoamFile
{
    format      binary;
    class       polyBoundaryMesh;
    location    "constant/polyMesh";
    object      boundary;
}
// * * * * * * * * * * * * * * * * * * * * * * * * * * * * * * * * * * * * * //

2
(
    cylinderWall
    {
        type            wall;
        inGroups        List<word> 1(wall);
        nFaces          6400;
        startFace       948800;
    }
    defaultFaces
    {
        type            patch;
        nFaces          16000;
        startFace       955200;
    }
)

// ************************************************************************* //
